22
Iron diiron(III) oxide
Fe        -0.00000       -0.00000        5.23500
Fe         2.96700       -0.00000        1.04700
Fe         2.96700        2.96250        3.14100
Fe        -0.00000        2.96250        5.23500
Fe         1.48350        2.96250        0.00000
Fe        -0.00000        1.48125        2.09400
Fe        -0.00000        4.44375        2.09400
Fe         1.48350       -0.00000        4.18800
Fe         2.96700        1.48125        6.28200
Fe         2.96700        4.44375        6.28200
O         -0.00000        1.53813        0.04020
O          2.96700        1.53813       -0.04020
O         -0.00000        4.38687        0.04020
O          2.96700        4.38687       -0.04020
O          1.42653       -0.00000        2.13420
O          1.42653        2.96250        2.05380
O         -0.00000        1.42437        4.14780
O          2.96700        1.42437        4.22821
O         -0.00000        4.50063        4.14780
O          2.96700        4.50063        4.22821
O          1.54047       -0.00000        6.24180
O          1.54047        2.96250        6.32221
